Version 4
SHEET 1 1240 680
WIRE 464 -368 -464 -368
WIRE 720 -368 528 -368
WIRE -64 -224 -784 -224
WIRE 176 -224 0 -224
WIRE 336 -224 176 -224
WIRE 368 -224 336 -224
WIRE 720 -224 720 -368
WIRE 720 -224 464 -224
WIRE 336 -176 336 -224
WIRE 176 -160 176 -224
WIRE 112 -112 16 -112
WIRE 16 -80 16 -112
WIRE 336 -64 336 -112
WIRE 336 -64 176 -64
WIRE 384 -64 384 -176
WIRE 384 -64 336 -64
WIRE 720 -64 720 -224
WIRE 384 -48 384 -64
WIRE 16 48 16 0
WIRE -464 96 -464 -368
WIRE -272 96 -464 96
WIRE -144 96 -208 96
WIRE -48 96 -64 96
WIRE -784 112 -784 -224
WIRE -464 128 -464 96
WIRE 16 208 16 144
WIRE 384 208 384 32
WIRE 720 208 720 16
FLAG -784 192 0
FLAG 384 208 0
FLAG 720 208 0
FLAG -464 208 0
FLAG 16 208 0
SYMBOL voltage -784 96 R0
WINDOW 123 0 0 Left 0
WINDOW 39 0 0 Left 0
SYMATTR InstName V1
SYMATTR Value 22.5
SYMBOL pmos 464 -176 M270
SYMATTR InstName M1
SYMATTR Value FDR840P
SYMBOL res 368 -64 R0
SYMATTR InstName R1
SYMATTR Value 100k
SYMBOL pnp 112 -64 M180
SYMATTR InstName Q1
SYMATTR Value 2N2907
SYMBOL voltage -464 112 R0
WINDOW 3 -114 135 Left 2
WINDOW 123 0 0 Left 0
WINDOW 39 0 0 Left 0
SYMATTR Value PWL(0 24 10m 24 200m 0)
SYMATTR InstName V2
SYMBOL zener 352 -112 R180
WINDOW 0 24 64 Left 2
WINDOW 3 24 0 Left 2
SYMATTR InstName D1
SYMATTR Value UMZ18K
SYMBOL diode 464 -352 R270
WINDOW 0 32 32 VTop 2
WINDOW 3 0 32 VBottom 2
SYMATTR InstName D2
SYMBOL res 0 -96 R0
SYMATTR InstName R3
SYMATTR Value 100k
SYMBOL current 720 -64 R0
WINDOW 123 0 0 Left 0
WINDOW 39 0 0 Left 0
SYMATTR InstName I1
SYMATTR Value 2m
SYMBOL diode -64 -208 R270
WINDOW 0 32 32 VTop 2
WINDOW 3 0 32 VBottom 2
SYMATTR InstName D4
SYMBOL npn -48 48 R0
SYMATTR InstName Q2
SYMATTR Value 2N2222
SYMBOL res -160 112 R270
WINDOW 0 32 56 VTop 2
WINDOW 3 0 56 VBottom 2
SYMATTR InstName R2
SYMATTR Value 22k
SYMBOL zener -208 80 R90
WINDOW 0 -4 32 VBottom 2
WINDOW 3 36 32 VTop 2
SYMATTR InstName D3
SYMATTR Value UMZ6_2K
TEXT 792 -24 Left 2 ;Load
TEXT -816 216 Left 2 !.tran 200m
TEXT -984 152 Left 2 ;Bus-Voltage
TEXT -616 112 Left 2 ;Secondary\nVoltage
